LIG
     RDKit          3D

 24 24  0  0  0  0  0  0  0  0999 V2000
    7.2090   14.6330   21.8420 S   0  0  0  0  0  6  0  0  0  0  0  0
    8.1820   15.3620   21.0760 O   0  0  0  0  0  0  0  0  0  0  0  0
    7.2580   13.2420   21.9050 O   0  0  0  0  0  0  0  0  0  0  0  0
    5.7180   15.1590   21.3620 N   0  0  0  0  0  0  0  0  0  0  0  0
    7.0470   15.0910   23.4670 N   0  0  0  0  0  0  0  0  0  0  0  0
    7.9040   14.4520   24.5290 C   0  0  0  0  0  0  0  0  0  0  0  0
    8.5050   13.1290   24.1270 C   0  0  0  0  0  0  0  0  0  0  0  0
    7.9520   11.9570   24.6520 C   0  0  0  0  0  0  0  0  0  0  0  0
    8.3860   10.7080   24.3640 N   0  0  0  0  0  0  0  0  0  0  0  0
    9.4230   10.6390   23.5000 C   0  0  0  0  0  0  0  0  0  0  0  0
   10.1360    9.0010   22.9320 Br  0  0  0  0  0  0  0  0  0  0  0  0
   10.0380   11.7210   22.9530 C   0  0  0  0  0  0  0  0  0  0  0  0
    9.5990   12.9860   23.2530 C   0  0  0  0  0  0  0  0  0  0  0  0
   10.3350   14.1140   22.6040 C   0  0  0  0  0  0  0  0  0  0  0  0
    5.6630   16.1850   21.2780 H   0  0  0  0  0  0  0  0  0  0  0  0
    4.9480   14.7010   21.8410 H   0  0  0  0  0  0  0  0  0  0  0  0
    6.0580   15.0280   23.7190 H   0  0  0  0  0  0  0  0  0  0  0  0
    8.7100   15.1290   24.8190 H   0  0  0  0  0  0  0  0  0  0  0  0
    7.3030   14.3030   25.4320 H   0  0  0  0  0  0  0  0  0  0  0  0
    7.1100   11.9910   25.3420 H   0  0  0  0  0  0  0  0  0  0  0  0
   10.8700   11.5760   22.2770 H   0  0  0  0  0  0  0  0  0  0  0  0
   10.8830   14.7130   23.3380 H   0  0  0  0  0  0  0  0  0  0  0  0
   11.0660   13.7160   21.8920 H   0  0  0  0  0  0  0  0  0  0  0  0
    9.6470   14.7760   22.0790 H   0  0  0  0  0  0  0  0  0  0  0  0
  1  2  2  0
  1  3  2  0
  1  4  1  0
  1  5  1  0
  5  6  1  0
  6  7  1  0
  7  8  2  0
  8  9  1  0
  9 10  2  0
 10 11  1  0
 10 12  1  0
 12 13  2  0
 13 14  1  0
 13  7  1  0
  4 15  1  0
  4 16  1  0
  5 17  1  0
  6 18  1  0
  6 19  1  0
  8 20  1  0
 12 21  1  0
 14 22  1  0
 14 23  1  0
 14 24  1  0
A    1
 S1 
A    2
 O1 
A    3
 O2 
A    4
 N1 
A    5
 N2 
A    6
 C1 
A    7
 C2 
A    8
 C3 
A    9
 N3 
A   10
 C4 
A   11
BR1 
A   12
 C5 
A   13
 C6 
A   14
 C7 
A   15
 H1 
A   16
 H2 
A   17
 H3 
A   18
 H4 
A   19
 H5 
A   20
 H6 
A   21
 H7 
A   22
 H8 
A   23
 H9 
A   24
 H10
M  END
