LIG
     RDKit          3D

 22 22  0  0  0  0  0  0  0  0999 V2000
    7.1170   14.6350   21.8320 S   0  0  0  0  0  6  0  0  0  0  0  0
    8.3770   15.1180   21.3360 O   0  0  0  0  0  0  0  0  0  0  0  0
    6.7160   13.3330   21.5520 O   0  0  0  0  0  0  0  0  0  0  0  0
    5.8950   15.4980   21.1570 N   0  0  0  0  0  0  0  0  0  0  0  0
    6.8250   14.9290   23.5950 C   0  0  0  0  0  0  0  0  0  0  0  0
    7.8450   14.3410   24.5560 C   0  0  0  0  0  0  0  0  0  0  0  0
    8.4400   13.1450   24.1890 C   0  0  0  0  0  0  0  0  0  0  0  0
    9.5260   13.1410   23.3260 C   0  0  0  0  0  0  0  0  0  0  0  0
   10.0840   11.9300   22.9650 C   0  0  0  0  0  0  0  0  0  0  0  0
    9.5470   10.7700   23.4730 C   0  0  0  0  0  0  0  0  0  0  0  0
   10.2480    9.3080   22.9790 Cl  0  0  0  0  0  0  0  0  0  0  0  0
    8.5010   10.7200   24.3260 N   0  0  0  0  0  0  0  0  0  0  0  0
    7.9710   11.9180   24.6650 C   0  0  0  0  0  0  0  0  0  0  0  0
    5.9780   16.5110   21.2360 H   0  0  0  0  0  0  0  0  0  0  0  0
    4.9740   15.1070   21.3210 H   0  0  0  0  0  0  0  0  0  0  0  0
    6.6930   16.0030   23.7480 H   0  0  0  0  0  0  0  0  0  0  0  0
    5.8560   14.4610   23.8060 H   0  0  0  0  0  0  0  0  0  0  0  0
    7.3710   14.1860   25.5340 H   0  0  0  0  0  0  0  0  0  0  0  0
    8.6350   15.0680   24.7580 H   0  0  0  0  0  0  0  0  0  0  0  0
    9.9370   14.0670   22.9280 H   0  0  0  0  0  0  0  0  0  0  0  0
   10.9280   11.8970   22.2880 H   0  0  0  0  0  0  0  0  0  0  0  0
    7.1220   11.8590   25.3530 H   0  0  0  0  0  0  0  0  0  0  0  0
  1  2  2  0
  1  3  2  0
  1  4  1  0
  1  5  1  0
  5  6  1  0
  6  7  1  0
  7  8  2  0
  8  9  1  0
  9 10  2  0
 10 11  1  0
 10 12  1  0
 12 13  2  0
 13  7  1  0
  4 14  1  0
  4 15  1  0
  5 16  1  0
  5 17  1  0
  6 18  1  0
  6 19  1  0
  8 20  1  0
  9 21  1  0
 13 22  1  0
A    1
 S1 
A    2
 O1 
A    3
 O2 
A    4
 N1 
A    5
 C1 
A    6
 C2 
A    7
 C3 
A    8
 C4 
A    9
 C5 
A   10
 C6 
A   11
CL1 
A   12
 N2 
A   13
 C7 
A   14
 H1 
A   15
 H2 
A   16
 H3 
A   17
 H4 
A   18
 H5 
A   19
 H6 
A   20
 H7 
A   21
 H8 
A   22
 H9 
M  END
