VP4-2A-poised
  PyMOL2.5          3D                             0

 83 82  0  0  0  0  0  0  0  0999 V2000
    0.4705   12.5989   21.5162 N   0  0  0  0  0  0  0  0  0  0  0  0
    1.8905   12.4059   21.7824 C   0  0  0  0  0  0  0  0  0  0  0  0
    2.6260   13.7376   21.8399 C   0  0  0  0  0  0  0  0  0  0  0  0
    2.0152   14.7874   22.0396 O   0  0  0  0  0  0  0  0  0  0  0  0
    2.5104   11.5041   20.7249 C   0  0  0  0  0  0  0  0  0  0  0  0
   -0.2069   12.1739   22.1334 H   0  0  0  0  0  0  0  0  0  0  0  0
    1.9915   11.9266   22.7575 H   0  0  0  0  0  0  0  0  0  0  0  0
    3.5716   11.3704   20.9365 H   0  0  0  0  0  0  0  0  0  0  0  0
    2.0135   10.5344   20.7360 H   0  0  0  0  0  0  0  0  0  0  0  0
    2.3922   11.9606   19.7441 H   0  0  0  0  0  0  0  0  0  0  0  0
    3.9436   13.6905   21.6648 N   0  0  0  0  0  0  0  0  0  0  0  0
    4.8049   14.8117   22.0177 C   0  0  0  0  0  0  0  0  0  0  0  0
    5.7800   15.1329   20.8932 C   0  0  0  0  0  0  0  0  0  0  0  0
    5.8753   14.3956   19.9111 O   0  0  0  0  0  0  0  0  0  0  0  0
    5.5900   14.5165   23.3093 C   0  0  0  0  0  0  0  0  0  0  0  0
    6.5358   13.3303   23.0995 C   0  0  0  0  0  0  0  0  0  0  0  0
    4.6360   14.2436   24.4615 C   0  0  0  0  0  0  0  0  0  0  0  0
    7.4415   13.0569   24.2781 C   0  0  0  0  0  0  0  0  0  0  0  0
    4.3575   12.8552   21.2757 H   0  0  0  0  0  0  0  0  0  0  0  0
    4.1789   15.6873   22.1855 H   0  0  0  0  0  0  0  0  0  0  0  0
    6.2121   15.3751   23.5608 H   0  0  0  0  0  0  0  0  0  0  0  0
    5.9528   12.4319   22.9009 H   0  0  0  0  0  0  0  0  0  0  0  0
    7.1614   13.5137   22.2255 H   0  0  0  0  0  0  0  0  0  0  0  0
    5.2074   14.0362   25.3661 H   0  0  0  0  0  0  0  0  0  0  0  0
    4.0029   15.1152   24.6233 H   0  0  0  0  0  0  0  0  0  0  0  0
    4.0122   13.3824   24.2202 H   0  0  0  0  0  0  0  0  0  0  0  0
    8.0819   12.2036   24.0545 H   0  0  0  0  0  0  0  0  0  0  0  0
    8.0602   13.9331   24.4734 H   0  0  0  0  0  0  0  0  0  0  0  0
    6.8379   12.8362   25.1572 H   0  0  0  0  0  0  0  0  0  0  0  0
    6.5044   16.2379   21.0424 N   0  0  0  0  0  0  0  0  0  0  0  0
    7.5481   16.6018   20.0913 C   0  0  0  0  0  0  0  0  0  0  0  0
    8.9139   16.1116   20.5579 C   0  0  0  0  0  0  0  0  0  0  0  0
    9.0097   15.2518   21.4326 O   0  0  0  0  0  0  0  0  0  0  0  0
    7.5918   18.1249   19.8742 C   0  0  0  0  0  0  0  0  0  0  0  0
    8.0611   18.8319   21.1371 C   0  0  0  0  0  0  0  0  0  0  0  0
    8.4883   18.4316   18.7985 O   0  0  0  0  0  0  0  0  0  0  0  0
    6.3267   16.8392   21.8331 H   0  0  0  0  0  0  0  0  0  0  0  0
    7.3273   16.1266   19.1366 H   0  0  0  0  0  0  0  0  0  0  0  0
    6.5968   18.4850   19.6132 H   0  0  0  0  0  0  0  0  0  0  0  0
    8.0521   18.2585   17.9606 H   0  0  0  0  0  0  0  0  0  0  0  0
    8.0858   19.9071   20.9647 H   0  0  0  0  0  0  0  0  0  0  0  0
    7.3760   18.6103   21.9546 H   0  0  0  0  0  0  0  0  0  0  0  0
    9.0604   18.4834   21.3979 H   0  0  0  0  0  0  0  0  0  0  0  0
    9.9681   16.6658   19.9683 N   0  0  0  0  0  0  0  0  0  0  0  0
   11.3291   16.2576   20.2941 C   0  0  0  0  0  0  0  0  0  0  0  0
   11.4553   15.8893   21.7658 C   0  0  0  0  0  0  0  0  0  0  0  0
   11.0691   16.6598   22.6458 O   0  0  0  0  0  0  0  0  0  0  0  0
   12.3388   17.3689   19.9503 C   0  0  0  0  0  0  0  0  0  0  0  0
   13.7553   16.9201   20.2738 C   0  0  0  0  0  0  0  0  0  0  0  0
   12.2480   17.6853   18.5555 O   0  0  0  0  0  0  0  0  0  0  0  0
    9.8220   17.3862   19.2766 H   0  0  0  0  0  0  0  0  0  0  0  0
   11.5770   15.3745   19.7031 H   0  0  0  0  0  0  0  0  0  0  0  0
   12.1063   18.2631   20.5282 H   0  0  0  0  0  0  0  0  0  0  0  0
   12.5222   16.9255   18.0360 H   0  0  0  0  0  0  0  0  0  0  0  0
   14.4547   17.7176   20.0243 H   0  0  0  0  0  0  0  0  0  0  0  0
   13.8311   16.6898   21.3355 H   0  0  0  0  0  0  0  0  0  0  0  0
   13.9969   16.0316   19.6920 H   0  0  0  0  0  0  0  0  0  0  0  0
   12.0004   14.7063   22.0296 N   0  0  0  0  0  0  0  0  0  0  0  0
   11.9659   14.1036   23.4238 C   0  0  0  0  0  0  0  0  0  0  0  0
   13.2850   14.0236   24.3334 C   0  0  0  0  0  0  0  0  0  0  0  0
   13.2380   14.2784   25.5360 O   0  0  0  0  0  0  0  0  0  0  0  0
   11.4171   12.6785   23.2804 C   0  0  0  0  0  0  0  0  0  0  0  0
   11.4573   11.8195   24.5504 C   0  0  0  0  0  0  0  0  0  0  0  0
   10.7867   12.5702   25.6924 C   0  0  0  0  0  0  0  0  0  0  0  0
   10.7640   10.4904   24.2874 C   0  0  0  0  0  0  0  0  0  0  0  0
   12.4479   14.1929   21.2842 H   0  0  0  0  0  0  0  0  0  0  0  0
   11.3024   14.7055   24.0434 H   0  0  0  0  0  0  0  0  0  0  0  0
   10.3804   12.7366   22.9520 H   0  0  0  0  0  0  0  0  0  0  0  0
   11.9906   12.1610   22.5117 H   0  0  0  0  0  0  0  0  0  0  0  0
   12.4948   11.6376   24.8342 H   0  0  0  0  0  0  0  0  0  0  0  0
   10.8156   11.9599   26.5951 H   0  0  0  0  0  0  0  0  0  0  0  0
   11.3140   13.5066   25.8722 H   0  0  0  0  0  0  0  0  0  0  0  0
    9.7505   12.7814   25.4309 H   0  0  0  0  0  0  0  0  0  0  0  0
   10.7939    9.8804   25.1899 H   0  0  0  0  0  0  0  0  0  0  0  0
    9.7268   10.6715   24.0041 H   0  0  0  0  0  0  0  0  0  0  0  0
   11.2747    9.9686   23.4786 H   0  0  0  0  0  0  0  0  0  0  0  0
   14.4060   13.6703   23.7122 N   0  0  0  0  0  0  0  0  0  0  0  0
   15.6738   13.5546   24.4239 C   0  0  0  0  0  0  0  0  0  0  0  0
   15.4898   12.8581   25.7649 C   0  0  0  0  0  0  0  0  0  0  0  0
   14.5426   12.0942   25.9549 O   0  0  0  0  0  0  0  0  0  0  0  0
   14.3790   13.4759   22.7213 H   0  0  0  0  0  0  0  0  0  0  0  0
   16.3845   12.9975   23.8121 H   0  0  0  0  0  0  0  0  0  0  0  0
   16.0948   14.5477   24.5805 H   0  0  0  0  0  0  0  0  0  0  0  0
  1  2  1  0  0  0  0
  1  6  1  0  0  0  0
  2  3  1  0  0  0  0
  2  5  1  0  0  0  0
  2  7  1  0  0  0  0
  3  4  2  0  0  0  0
  3 11  1  0  0  0  0
  5  8  1  0  0  0  0
  5  9  1  0  0  0  0
  5 10  1  0  0  0  0
 11 12  1  0  0  0  0
 11 19  1  0  0  0  0
 12 13  1  0  0  0  0
 12 15  1  0  0  0  0
 12 20  1  0  0  0  0
 13 14  2  0  0  0  0
 13 30  1  0  0  0  0
 15 16  1  0  0  0  0
 15 17  1  0  0  0  0
 15 21  1  0  0  0  0
 16 18  1  0  0  0  0
 16 22  1  0  0  0  0
 16 23  1  0  0  0  0
 17 24  1  0  0  0  0
 17 25  1  0  0  0  0
 17 26  1  0  0  0  0
 18 27  1  0  0  0  0
 18 28  1  0  0  0  0
 18 29  1  0  0  0  0
 30 31  1  0  0  0  0
 30 37  1  0  0  0  0
 31 32  1  0  0  0  0
 31 34  1  0  0  0  0
 31 38  1  0  0  0  0
 32 33  2  0  0  0  0
 32 44  1  0  0  0  0
 34 35  1  0  0  0  0
 34 36  1  0  0  0  0
 34 39  1  0  0  0  0
 35 41  1  0  0  0  0
 35 42  1  0  0  0  0
 35 43  1  0  0  0  0
 36 40  1  0  0  0  0
 44 45  1  0  0  0  0
 44 51  1  0  0  0  0
 45 46  1  0  0  0  0
 45 48  1  0  0  0  0
 45 52  1  0  0  0  0
 46 47  2  0  0  0  0
 46 58  1  0  0  0  0
 48 49  1  0  0  0  0
 48 50  1  0  0  0  0
 48 53  1  0  0  0  0
 49 55  1  0  0  0  0
 49 56  1  0  0  0  0
 49 57  1  0  0  0  0
 50 54  1  0  0  0  0
 58 59  1  0  0  0  0
 58 66  1  0  0  0  0
 59 60  1  0  0  0  0
 59 62  1  0  0  0  0
 59 67  1  0  0  0  0
 60 61  2  0  0  0  0
 60 77  1  0  0  0  0
 62 63  1  0  0  0  0
 62 68  1  0  0  0  0
 62 69  1  0  0  0  0
 63 64  1  0  0  0  0
 63 65  1  0  0  0  0
 63 70  1  0  0  0  0
 64 71  1  0  0  0  0
 64 72  1  0  0  0  0
 64 73  1  0  0  0  0
 65 74  1  0  0  0  0
 65 75  1  0  0  0  0
 65 76  1  0  0  0  0
 77 78  1  0  0  0  0
 77 81  1  0  0  0  0
 78 79  1  0  0  0  0
 78 82  1  0  0  0  0
 78 83  1  0  0  0  0
 79 80  2  0  0  0  0
M  END
